84
M1_Co2TCPP
N         49.25390       61.36370       62.00810
C         49.15480       62.46390       61.17460
C         49.12880       60.26090       61.18110
C         48.93340       62.03990       59.81640
C         48.91590       60.68190       59.82070
N         49.40860       63.36310       63.99520
C         49.36290       64.19820       62.89190
C         49.50120       64.20320       65.09200
C         49.51330       65.57820       64.66430
C         49.44800       65.57450       63.30770
N         49.49110       61.37110       65.99570
C         49.55710       62.47520       66.82880
C         49.57140       60.27120       66.83300
C         49.69100       62.05620       68.20110
C         49.70170       60.69730       68.20350
N         49.39820       59.37240       64.00490
C         49.32580       58.53290       62.90640
C         49.50370       58.53640       65.10350
C         49.49900       57.15950       64.68170
C         49.40610       57.15770       63.32680
C         49.23140       63.80730       61.55530
C         49.18220       58.91860       61.56940
C         49.58060       58.92740       66.44440
C         49.56000       63.81750       66.43530
C         48.88480       55.84410       58.51530
C         47.89780       55.98550       59.49740
C         47.98940       56.97100       60.48100
C         49.07930       57.85770       60.51650
C         50.06890       57.71690       59.52870
C         49.97010       56.72730       58.54980
C         49.02350       66.86000       58.47270
C         48.02290       66.74520       59.44460
C         48.08550       65.76730       60.43800
C         49.15890       64.86180       60.49390
C         50.16210       64.97600       59.51630
C         50.09230       65.95820       58.52760
C         49.78450       66.88800       69.50120
C         50.83360       66.69330       68.59530
C         50.76630       65.70910       67.60800
C         49.63890       64.87770       67.49230
C         48.58680       65.07190       68.40380
C         48.66200       66.05990       69.38670
C         49.86770       55.86340       69.51100
C         50.90050       56.06110       68.58700
C         50.81250       57.04350       67.59990
C         49.68030       57.87080       67.50260
C         48.64450       57.67380       68.43180
C         48.74010       56.68730       69.41450
O         49.72640       54.71470       56.59360
C         48.77920       54.74320       57.42210
O         48.86480       68.05960       71.36120
C         49.86350       67.98780       70.59820
O         50.91690       68.67720       70.59400
O         48.98450       54.69050       71.38800
C         49.96940       54.76480       70.60740
O         51.02480       54.07880       70.58520
O         47.94130       68.70400       57.42130
C         48.94990       67.95250       57.36840
O         49.90740       67.95730       56.55130
O         47.75870       54.00960       57.49410
H         48.79980       62.71060       58.98130
H         48.76520       60.00980       58.98950
H         49.57130       66.42460       65.33120
H         49.44540       66.41720       62.63370
H         49.78060       62.73050       69.04000
H         49.80170       60.02770       69.04480
H         49.56290       56.31560       65.35130
H         49.38360       56.31210       62.65680
H         47.05920       55.29540       59.45640
H         47.21280       57.06750       61.23680
H         50.91930       58.39520       59.54140
H         50.73000       56.60470       57.78250
H         47.19710       67.44960       59.38770
H         47.29850       65.69130       61.18520
H         50.99980       64.28260       59.54470
H         50.86290       66.06010       57.76810
H         51.70060       67.34060       68.69880
H         51.59140       65.57050       66.91230
H         47.70680       64.43640       68.32860
H         47.85380       66.22470       70.09450
H         51.77150       55.41720       68.67620
H         51.62490       57.18410       66.88980
H         47.76020       58.30520       68.37020
H         47.94430       56.52010       70.13570
