32
0447pho H14C10N1O5P1S1 diethyl4-nitrophenylthiophosphonate m062x_mg3s_geom
C              2.218820000000         2.547480000000        -0.805880000000
C              1.358970000000         3.106000000000         0.306760000000
C              2.218520000000        -2.547610000000        -0.805760000000
C              1.358450000000        -3.105880000000         0.306850000000
C             -0.476930000000        -0.000060000000         0.518320000000
C             -0.950010000000        -0.000130000000        -0.791140000000
C             -1.357090000000         0.000040000000         1.597050000000
C             -2.719530000000         0.000090000000         1.375120000000
C             -3.179200000000         0.000040000000         0.068890000000
C             -2.317470000000        -0.000080000000        -1.011680000000
P              2.126000000000        -0.000050000000        -0.134330000000
N             -4.628920000000         0.000110000000        -0.175810000000
O              1.858750000000         1.189340000000        -1.128060000000
O              1.858980000000        -1.189390000000        -1.128170000000
O              0.849070000000        -0.000130000000         0.853450000000
O             -5.003270000000         0.000130000000        -1.327420000000
O             -5.359090000000         0.000140000000         0.790260000000
S              3.733510000000         0.000020000000         0.882410000000
H              1.578640000000         4.164640000000         0.439630000000
H              1.559190000000         2.595420000000         1.248470000000
H              0.301650000000         2.998760000000         0.064110000000
H              3.276710000000         2.568130000000        -0.543680000000
H              2.073230000000         3.090940000000        -1.735960000000
H              3.276390000000        -2.568620000000        -0.543520000000
H              2.072790000000        -3.091110000000        -1.735800000000
H              1.558720000000        -2.595420000000         1.248600000000
H              1.577890000000        -4.164580000000         0.439640000000
H              0.301160000000        -2.998420000000         0.064130000000
H             -0.950560000000         0.000060000000         2.597980000000
H             -3.425090000000         0.000160000000         2.191800000000
H             -2.719150000000        -0.000120000000        -2.013650000000
H             -0.267940000000        -0.000260000000        -1.626350000000