9

C             -2.146850261744         1.031946663663         0.031694615728
C             -3.086007431804        -0.202386054605         0.026894202439
H             -1.110683095468         0.703776757091        -0.118896275422
H             -2.194446355449         1.549073313743         0.998066535711
H             -2.633517033396        -0.992621482043         0.637080993639
H             -3.182205925044        -0.586756105750        -0.995078364981
O             -4.376711025335         0.101016579641         0.553982673440
H             -2.367119989565         1.753539080702        -0.772267386580
H             -4.885458881243        -0.725588753617         0.507523006025
