9

C              0.721983307000        -0.093370040355         1.280398722892
C              0.940139740794         0.760493490027         0.272304698391
H              1.495543089993        -0.783483085674         1.622398070732
H             -0.230110633989        -0.118421467271         1.812351112669
H              1.900219284588         0.800255940787        -0.245831652609
H              0.174465752241         1.464886484212        -0.055618861993
O              0.555600129236        -1.963748732987        -1.216211746969
H              0.655688587631        -1.198932800850        -0.567593018281
H             -0.407862788488        -2.048068172804        -1.466656733228
