9

C              0.017820631253        -1.171318747086        -0.251094176576
C              0.096375951023        -2.484341875219        -0.511179684463
H              0.148359444945        -0.430335384993        -1.039487679338
H             -0.209823743255        -0.805591947489         0.749884528167
H              0.301626178476        -2.860007031180        -1.515234748200
H             -0.054692719557        -3.234609359944         0.267029714766
O              1.478978679226         0.746085773903         0.440584724730
H              0.583704650442         1.191500982210         0.466733457169
H              2.183894779998         1.397370001160         0.731366583008
