9

C             -0.286411068939        -0.599688330978        -0.234525569794
C             -0.396610830027        -1.908081733735        -0.500650119454
H             -0.025687880731         0.117286875169        -1.013498369119
H             -0.502753353579        -0.203300054844         0.757873309002
H             -0.213497066050        -2.305601311106        -1.499660379684
H             -0.689671978094        -2.625048233164         0.267287513689
O              2.358433138661        -0.439525256377         0.502072613798
H              1.489261935946        -0.080175539606         0.305832534547
H              2.894937218790         0.316133585916         0.756268483697
